%nprocshared=32
%mem=20GB
%chk=EWV.chk
# opt b3lyp/6-31g(d) scrf=(smd,solvent=water) nosymm pop=mk geom=connectivity iop(6/33=2,6/42=6)

EWV

1 1
 C                 -0.67031800   -1.01228900    0.16175300
 C                  1.55604800    0.14815400   -0.05390900
 C                  2.22741800    1.36222400    0.15338300
 C                 -2.86537500   -2.15383400    0.38144400
 C                 -4.85419400   -0.86053700    0.09749400
 C                  1.41404200    2.62568300    0.27296000
 C                  0.20330700    2.53643100   -0.64051300
 C                  4.36068700    0.20244600    0.12847700
 O                  5.71808700    0.12048700    0.20074100
 C                  6.45260800    1.32886500    0.42999700
 C                  3.62337400    1.37762300    0.24547300
 N                 -0.59088600    1.31381400   -0.33095500
 C                 -1.92090200    1.38931800   -0.35212200
 C                 -2.72191200    0.26524400   -0.12660400
 C                 -4.12641500    0.28262300   -0.13740300
 O                 -4.95230100    1.34319900   -0.37870400
 C                 -6.29653700    0.84217500   -0.17832600
 O                 -6.19844000   -0.58285800    0.01377900
 C                 -4.25241300   -2.09608000    0.35908700
 C                 -2.08266000   -0.99986400    0.14081000
 C                  0.08597200    0.11683600   -0.07887900
 C                  2.30241700   -1.04350500   -0.19084800
 C                  3.68555600   -1.02602100   -0.10154100
 O                  4.49421100   -2.12189100   -0.23058600
 C                  3.86999900   -3.38404500   -0.48227700
 H                 -0.16739000   -1.94277900    0.39519300
 H                 -2.36430600   -3.09433700    0.58455700
 H                  1.08760100    2.78812500    1.30916700
 H                  2.00429100    3.49869200   -0.02066600
 H                 -0.46040100    3.39257100   -0.52745600
 H                  0.51266300    2.46037500   -1.68755100
 H                  6.17316200    1.78406700    1.38640700
 H                  7.50193300    1.03202000    0.45791000
 H                  6.29460800    2.04622500   -0.38259700
 H                  4.12701100    2.32383500    0.40618100
 H                 -2.35092100    2.36213900   -0.55663900
 H                 -6.72043800    1.30527800    0.71741800
 H                 -6.89207100    1.05095500   -1.06854100
 H                 -4.85865000   -2.97729200    0.53875500
 H                  1.79587400   -1.97911100   -0.38785600
 H                  4.68475000   -4.10694400   -0.54682300
 H                  3.19592900   -3.66278400    0.33566600
 H                  3.31598300   -3.37023400   -1.42785700

 1 20 1.5 21 2.0 26 1.0
 2 3 1.5 21 1.0 22 1.5
 3 6 1.0 11 1.5
 4 19 1.5 20 1.5 27 1.0
 5 15 2.0 18 1.0 19 1.5
 6 7 1.0 28 1.0 29 1.0
 7 12 1.0 30 1.0 31 1.0
 8 9 1.0 11 1.5 23 1.5
 9 10 1.0
 10 32 1.0 33 1.0 34 1.0
 11 35 1.0
 12 13 1.5 21 1.0
 13 14 1.5 36 1.0
 14 15 1.5 20 1.5
 15 16 1.0
 16 17 1.0
 17 18 1.0 37 1.0 38 1.0
 18
 19 39 1.0
 20
 21
 22 23 1.5 40 1.0
 23 24 1.0
 24 25 1.0
 25 41 1.0 42 1.0 43 1.0
 26
 27
 28
 29
 30
 31
 32
 33
 34
 35
 36
 37
 38
 39
 40
 41
 42
 43

